RESULTADO_ZIP.TXT
CEPEL - CENTRO DE PESQUISAS DE ENERGIA ELETRICA - PROGRAMA DE ANALISE DE REDES - V13.00.00                                 PAG.   4

 IEEE 39 BUS SYSTEM - ZIP LOAD MODEL (40Z, 40I, 20P)                             
 RELATORIO DE CONVERGENCIA

 OPCOES ATIVADAS: QLIM CREM CTAP STEP NEWT MOCT MOCG MOCF RCVG RMON FILE INMN UNPG

 X-----------X------X------X---------------X---------------X---------------X--X-----------------------------------------------------------X
    ITERACAO          FREQ.  ERRO MAX BARRA  ERRO MAX BARRA  ERRO MAX  CONV                                                                
  FC  P  Q  V  M.O.   (Hz)       MW    NUM.     Mvar   NUM.  TENSAO %  NUM. FM  BARRA(B), CIRCUITO(C) E CONVERSOR COM LIMITE VIOLADO       
 X--X--X--X--X------X------X---------X-----X---------X-----X---------X-----X--X-----------------------------------------------------------X

      1  1    0.2490 60.000    812.70    38    810.99    19
      2  2    0.2402 60.000    596.49    38    206.79    22
      3  3    0.3193 60.000    512.38     8    129.29    25
      4  4    0.4758 60.000    617.72    10    134.82    25
      5  5    0.9339 60.000    510.30     8     40.01     8
      6  6    1.0000 60.000     30.46    39      9.15     5
 ................................................................




 CONVERGENCIA FINAL

 X-----------X------X------X---------------X---------------X---------------X
    ITERACAO          FREQ. ERRO MAX BARRA  ERRO MAX BARRA  ERRO MAX  CONV  
  FC  P  Q  V  M.O.   (Hz)      MW    NUM.     Mvar   NUM.  TENSAO %  NUM.  
 X--X--X--X--X------X------X---------X-----X---------X-----X---------X-----X

   0                             0.00     0      0.00     0
      6  6  0 1.0000 60.000      0.04    39      0.03     1     0.000     0


 MONITORACAO DE TENSAO

Não foram encontradas violações de tensao entre as barras monitoradas.


 MONITORACAO DE GERACAO REATIVA

Não foram encontradas violações de geracao entre as barras monitoradas.


 MONITORACAO DE FLUXOS CORRIGIDOS PELA TENSAO - MFCT

 Não foram encontradas violações de fluxo entre os circuitos monitorados
CEPEL - CENTRO DE PESQUISAS DE ENERGIA ELETRICA - PROGRAMA DE ANALISE DE REDES - V13.00.00                                 PAG.   5

 IEEE 39 BUS SYSTEM - ZIP LOAD MODEL (40Z, 40I, 20P)                             
 RELATORIO DE BARRAS CA DO SISTEMA * AREA   1 *                                     

 X---------------------X-----------X---------------X---------------X---------------X---------------X---------------X---------------X---X
          BARRA            TENSAO        GERACAO     INJECAO EQUIV        CARGA          ELO CC          SHUNT           MOTOR
  NUM.      NOME     TP  MOD   ANG      MW    Mvar\     MW    Mvar      MW    Mvar      MW    Mvar    Mvar   EQUIV      MW    Mvar
                                            CE Mvar                                                 SHUNT L                         EST
 X-----X------------X--X-----X-----X-------X-------X-------X-------X-------X-------X-------X-------X-------X-------X-------X-------X---X

      1 BUS 01        0 1.048 -12.9     0.0     0.0     0.0     0.0     0.0     0.0     0.0     0.0     0.0     0.0     0.0     0.0 LIG
      2 BUS 02        0 1.050 -10.3     0.0     0.0     0.0     0.0     0.0     0.0     0.0     0.0     0.0     0.0     0.0     0.0 LIG
      3 BUS 03        0 1.030 -12.9     0.0     0.0     0.0     0.0   333.9     2.5     0.0     0.0     0.0     0.0     0.0     0.0 LIG
      4 BUS 04        0 1.003 -13.1     0.0     0.0     0.0     0.0   501.6   184.6     0.0     0.0     0.0     0.0     0.0     0.0 LIG
      5 BUS 05        0 1.003 -11.5     0.0     0.0     0.0     0.0     0.0     0.0     0.0     0.0     0.0     0.0     0.0     0.0 LIG
      6 BUS 06        0 1.006 -10.7     0.0     0.0     0.0     0.0     0.0     0.0     0.0     0.0     0.0     0.0     0.0     0.0 LIG
      7 BUS 07        0 0.995 -13.0     0.0     0.0     0.0     0.0   232.4    83.5     0.0     0.0     0.0     0.0     0.0     0.0 LIG
      8 BUS 08        0 0.994 -13.6     0.0     0.0     0.0     0.0   518.3   174.8     0.0     0.0     0.0     0.0     0.0     0.0 LIG
      9 BUS 09        0 1.027 -14.2     0.0     0.0     0.0     0.0     0.0     0.0     0.0     0.0     0.0     0.0     0.0     0.0 LIG
     10 BUS 10        0 1.016  -8.5     0.0     0.0     0.0     0.0     0.0     0.0     0.0     0.0     0.0     0.0     0.0     0.0 LIG
     11 BUS 11        0 1.011  -9.2     0.0     0.0     0.0     0.0     0.0     0.0     0.0     0.0     0.0     0.0     0.0     0.0 LIG
     12 BUS 12        0 0.999  -9.3     0.0     0.0     0.0     0.0     7.5    87.9     0.0     0.0     0.0     0.0     0.0     0.0 LIG
     13 BUS 13        0 1.013  -9.3     0.0     0.0     0.0     0.0     0.0     0.0     0.0     0.0     0.0     0.0     0.0     0.0 LIG
     14 BUS 14        0 1.010 -11.2     0.0     0.0     0.0     0.0     0.0     0.0     0.0     0.0     0.0     0.0     0.0     0.0 LIG
     15 BUS 15        0 1.015 -12.0     0.0     0.0     0.0     0.0   325.7   155.7     0.0     0.0     0.0     0.0     0.0     0.0 LIG
     16 BUS 16        0 1.032 -10.7     0.0     0.0     0.0     0.0   341.7    33.2     0.0     0.0     3.2     0.0     0.0     0.0 LIG
     17 BUS 17        0 1.034 -11.9     0.0     0.0     0.0     0.0     0.0     0.0     0.0     0.0     0.0     0.0     0.0     0.0 LIG
     18 BUS 18        0 1.031 -12.7     0.0     0.0     0.0     0.0   164.0    31.1     0.0     0.0     0.0     0.0     0.0     0.0 LIG
     19 BUS 19        0 1.050  -5.5     0.0     0.0     0.0     0.0     0.0     0.0     0.0     0.0     0.0     0.0     0.0     0.0 LIG
     20 BUS 20        0 0.991  -6.4     0.0     0.0     0.0     0.0   621.3   101.9     0.0     0.0     0.0     0.0     0.0     0.0 LIG
     21 BUS 21        0 1.031  -8.4     0.0     0.0     0.0     0.0   284.5   119.4     0.0     0.0     0.0     0.0     0.0     0.0 LIG
     22 BUS 22        0 1.050  -4.0     0.0     0.0     0.0     0.0     0.0     0.0     0.0     0.0     0.0     0.0     0.0     0.0 LIG
     23 BUS 23        0 1.045  -4.3     0.0     0.0     0.0     0.0   261.1    88.6     0.0     0.0     6.6     0.0     0.0     0.0 LIG
     24 BUS 24        0 1.038 -10.7     0.0     0.0     0.0     0.0   322.7   -96.2     0.0     0.0     0.0     0.0     0.0     0.0 LIG
     25 BUS 25        0 1.057  -9.1     0.0     0.0     0.0     0.0   239.6    50.3     0.0     0.0     2.2     0.0     0.0     0.0 LIG
     26 BUS 26        0 1.053 -10.6     0.0     0.0     0.0     0.0   148.0    18.1     0.0     0.0     0.0     0.0     0.0     0.0 LIG
     27 BUS 27        0 1.039 -12.4     0.0     0.0     0.0     0.0   294.2    78.5     0.0     0.0     5.4     0.0     0.0     0.0 LIG
     28 BUS 28        0 1.053  -7.5     0.0     0.0     0.0     0.0   219.2    28.7     0.0     0.0     6.6     0.0     0.0     0.0 LIG
     29 BUS 29        0 1.052  -4.8     0.0     0.0     0.0     0.0   301.5    27.7     0.0     0.0    10.0     0.0     0.0     0.0 LIG
     30 GEN 30        1 1.048  -7.9   250.0   143.6     0.0     0.0     0.0     0.0     0.0     0.0     0.0     0.0     0.0     0.0 LIG
     31 GEN 31        2 0.982  -0.0   692.3   233.8     0.0     0.0     9.0     4.5     0.0     0.0     0.0     0.0     0.0     0.0 LIG
     32 GEN 32        1 0.983  -0.5   650.0   210.7     0.0     0.0     0.0     0.0     0.0     0.0     0.0     0.0     0.0     0.0 LIG
     33 GEN 33        1 0.997  -0.3   632.0   109.4     0.0     0.0     0.0     0.0     0.0     0.0     0.0     0.0     0.0     0.0 LIG
     34 GEN 34        1 1.012  -1.2   508.0   164.5     0.0     0.0     0.0     0.0     0.0     0.0     0.0     0.0     0.0     0.0 LIG
     35 GEN 35        1 1.049   0.9   650.0   210.5     0.0     0.0     0.0     0.0     0.0     0.0     0.0     0.0     0.0     0.0 LIG
     36 GEN 36        1 1.064   3.6   560.0   102.1     0.0     0.0     0.0     0.0     0.0     0.0     0.0     0.0     0.0     0.0 LIG
     37 GEN 37        1 1.028  -2.3   540.0     3.7     0.0     0.0     0.0     0.0     0.0     0.0     0.0     0.0     0.0     0.0 LIG
     38 GEN 38        1 1.027   2.3   830.0    12.6     0.0     0.0     0.0     0.0     0.0     0.0     0.0     0.0     0.0     0.0 LIG
     39 GEN 39        1 1.030 -14.5  1000.0   101.0     0.0     0.0  1144.1   259.1     0.0     0.0     0.0     0.0     0.0     0.0 LIG
CEPEL - CENTRO DE PESQUISAS DE ENERGIA ELETRICA - PROGRAMA DE ANALISE DE REDES - V13.00.00                                 PAG.   6

 IEEE 39 BUS SYSTEM - ZIP LOAD MODEL (40Z, 40I, 20P)                             
 RELATORIO COMPLETO DO SISTEMA * AREA   1 *                                     

 X--------------------- D A D O S  -  B A R R A ---------------------------X------------- F L U X O S  -  C I R C U I T O S --------------X-----------------X-----------X-------X
  DA BARRA       TENSAO GERACAO INJ EQV  CARGA    ELO CC     SHUNT   MOTOR                                                                                                       
  NUM.  KV TIPO   MOD/     MW/     MW/     MW/      MW/      Mvar/     MW/                                                                    P E R D A S    T E N S A O         
       NOME       ANG     Mvar    Mvar    Mvar     Mvar      EQUIV    Mvar  PARA BARRA             F   L   U   X   O   S                    ATIVA   REATIVA  CIR. ABERTO  TRAFO  
                        MVA_NOM MVA_EMR MVA_EQP   FLUXO %   SHUNT L         NUM.      NOME     NC    MW     Mvar  MVA/V_d   TAP  DEFAS TIE    MW      Mvar    MOD   ANG  UOp UMx 
 X-------------X-------X-------X-------X-------X-----------X-------X-------X-----X------------X--X-------X-------X-------X------X-----X---X--------X--------X-----X-----X---X---X

      1    1  0   1.048     0.0     0.0     0.0         0.0     0.0     0.0
  BUS 01          -12.9     0.0     0.0     0.0         0.0     0.0     0.0                                          
                         9999.0  9999.0  9999.0        0.0%                     2 BUS 02        1  -121.1   -30.1   119.1                      0.47   -71.33                    
                         9999.0  9999.0  9999.0        0.0%                    39 GEN 39        1   121.1    30.2   119.1                      0.18   -76.45                    
  ...............................................................................................................................................................................
      2    1  0   1.050     0.0     0.0     0.0         0.0     0.0     0.0
  BUS 02          -10.3     0.0     0.0     0.0         0.0     0.0     0.0                                          
                         9999.0  9999.0  9999.0        0.0%                     1 BUS 01        1   121.6   -41.2   122.3                      0.47   -71.33                    
                         9999.0  9999.0  9999.0        0.0%                     3 BUS 03        1   333.5    98.6   331.3                      1.46   -10.84                    
                         9999.0  9999.0  9999.0        0.0%                    25 BUS 25        1  -205.1    72.5   207.2                      3.08   -12.41                    
                         9999.0  9999.0  9999.0        0.0%                    30 GEN 30        1  -250.0  -129.9   268.4 1.025F               0.00    13.70             001 001
  ...............................................................................................................................................................................
      3    1  0   1.030     0.0     0.0   333.9         0.0     0.0     0.0
  BUS 03          -12.9     0.0     0.0     2.5         0.0     0.0     0.0                                          
                         9999.0  9999.0  9999.0        0.0%                     2 BUS 02        1  -332.0  -109.4   339.3                      1.46   -10.84                    
                         9999.0  9999.0  9999.0        0.0%                     4 BUS 04        1    22.4   121.5   119.9                      0.22   -19.22                    
                         9999.0  9999.0  9999.0        0.0%                    18 BUS 18        1   -24.3   -14.6    27.5                      0.01   -22.64                    
  ...............................................................................................................................................................................
      4    1  0   1.003     0.0     0.0   501.6         0.0     0.0     0.0
  BUS 04          -13.1     0.0     0.0   184.6         0.0     0.0     0.0                                          
                         9999.0  9999.0  9999.0        0.0%                     3 BUS 03        1   -22.2  -140.7   142.1                      0.22   -19.22                    
                         9999.0  9999.0  9999.0        0.0%                     5 BUS 05        1  -216.8     3.9   216.3                      0.38    -7.50                    
                         9999.0  9999.0  9999.0        0.0%                    14 BUS 14        1  -262.5   -47.8   266.1                      0.56    -4.94                    
  ...............................................................................................................................................................................
      5    1  0   1.003     0.0     0.0     0.0         0.0     0.0     0.0
  BUS 05          -11.5     0.0     0.0     0.0         0.0     0.0     0.0                                          
                         9999.0  9999.0  9999.0        0.0%                     4 BUS 04        1   217.2   -11.4   216.8                      0.38    -7.50                    
                         9999.0  9999.0  9999.0        0.0%                     6 BUS 06        1  -546.5   -46.0   546.6                      0.60     3.38                    
                         9999.0  9999.0  9999.0        0.0%                     8 BUS 08        1   329.3    57.4   333.2                      0.90    -2.19                    
  ...............................................................................................................................................................................
      6    1  0   1.006     0.0     0.0     0.0         0.0     0.0     0.0
  BUS 06          -10.7     0.0     0.0     0.0         0.0     0.0     0.0                                          
                         9999.0  9999.0  9999.0        0.0%                     5 BUS 05        1   547.1    49.4   546.3                      0.60     3.38                    
                         9999.0  9999.0  9999.0        0.0%                     7 BUS 07        1   447.1    89.9   453.5                      1.24     7.71                    
                         9999.0  9999.0  9999.0        0.0%                    11 BUS 11        1  -311.0   -44.7   312.4                      0.68    -6.17                    
                         9999.0  9999.0  9999.0        0.0%                    31 GEN 31        1  -683.3   -94.6   685.9 1.070F               0.00   134.66             001 001
  ...............................................................................................................................................................................
      7    1  0   0.995     0.0     0.0   232.4         0.0     0.0     0.0
  BUS 07          -13.0     0.0     0.0    83.5         0.0     0.0     0.0                                          
                         9999.0  9999.0  9999.0        0.0%                     6 BUS 06        1  -445.9   -82.2   455.6                      1.24     7.71                    
                         9999.0  9999.0  9999.0        0.0%                     8 BUS 08        1   213.5    -1.3   214.5                      0.18    -5.60                    
  ...............................................................................................................................................................................
CEPEL - CENTRO DE PESQUISAS DE ENERGIA ELETRICA - PROGRAMA DE ANALISE DE REDES - V13.00.00                                 PAG.   7

 IEEE 39 BUS SYSTEM - ZIP LOAD MODEL (40Z, 40I, 20P)                             
 RELATORIO COMPLETO DO SISTEMA * AREA   1 *                                     

 X--------------------- D A D O S  -  B A R R A ---------------------------X------------- F L U X O S  -  C I R C U I T O S --------------X-----------------X-----------X-------X
  DA BARRA       TENSAO GERACAO INJ EQV  CARGA    ELO CC     SHUNT   MOTOR                                                                                                       
  NUM.  KV TIPO   MOD/     MW/     MW/     MW/      MW/      Mvar/     MW/                                                                    P E R D A S    T E N S A O         
       NOME       ANG     Mvar    Mvar    Mvar     Mvar      EQUIV    Mvar  PARA BARRA             F   L   U   X   O   S                    ATIVA   REATIVA  CIR. ABERTO  TRAFO  
                        MVA_NOM MVA_EMR MVA_EQP   FLUXO %   SHUNT L         NUM.      NOME     NC    MW     Mvar  MVA/V_d   TAP  DEFAS TIE    MW      Mvar    MOD   ANG  UOp UMx 
 X-------------X-------X-------X-------X-------X-----------X-------X-------X-----X------------X--X-------X-------X-------X------X-----X---X--------X--------X-----X-----X---X---X

      8    1  0   0.994     0.0     0.0   518.3         0.0     0.0     0.0
  BUS 08          -13.6     0.0     0.0   174.8         0.0     0.0     0.0                                          
                         9999.0  9999.0  9999.0        0.0%                     5 BUS 05        1  -328.4   -59.6   335.7                      0.90    -2.19                    
                         9999.0  9999.0  9999.0        0.0%                     7 BUS 07        1  -213.3    -4.3   214.6                      0.18    -5.60                    
                         9999.0  9999.0  9999.0        0.0%                     9 BUS 09        1    23.4  -110.9   114.0                      0.21   -35.55                    
  ...............................................................................................................................................................................
      9    1  0   1.027     0.0     0.0     0.0         0.0     0.0     0.0
  BUS 09          -14.2     0.0     0.0     0.0         0.0     0.0     0.0                                          
                         9999.0  9999.0  9999.0        0.0%                     8 BUS 08        1   -23.2    75.4    76.7                      0.21   -35.55                    
                         9999.0  9999.0  9999.0        0.0%                    39 GEN 39        1    23.2   -75.3    76.7                      0.01  -126.81                    
  ...............................................................................................................................................................................
     10    1  0   1.016     0.0     0.0     0.0         0.0     0.0     0.0
  BUS 10           -8.5     0.0     0.0     0.0         0.0     0.0     0.0                                          
                         9999.0  9999.0  9999.0        0.0%                    11 BUS 11        1   316.7    78.2   321.2                      0.41    -3.03                    
                         9999.0  9999.0  9999.0        0.0%                    13 BUS 13        1   333.2    35.9   330.0                      0.44    -2.81                    
                         9999.0  9999.0  9999.0        0.0%                    32 GEN 32        1  -650.0  -114.1   649.6 1.070F               0.00    96.64             001 001
  ...............................................................................................................................................................................
     11    1  0   1.011     0.0     0.0     0.0         0.0     0.0     0.0
  BUS 11           -9.2     0.0     0.0     0.0         0.0     0.0     0.0                                          
                         9999.0  9999.0  9999.0        0.0%                     6 BUS 06        1   311.7    38.5   310.6                      0.68    -6.17                    
                         9999.0  9999.0  9999.0        0.0%                    10 BUS 10        1  -316.3   -81.2   323.0                      0.41    -3.03                    
                         9999.0  9999.0  9999.0        0.0%                    12 BUS 12        1     4.7    42.7    42.5                      0.03     0.78                    
  ...............................................................................................................................................................................
     12    1  0   0.999     0.0     0.0     7.5         0.0     0.0     0.0
  BUS 12           -9.3     0.0     0.0    87.9         0.0     0.0     0.0                                          
                         9999.0  9999.0  9999.0        0.0%                    11 BUS 11        1    -4.6   -41.9    42.2 1.006F               0.03     0.78             001 001
                         9999.0  9999.0  9999.0        0.0%                    13 BUS 13        1    -2.9   -45.9    46.1 1.006F               0.03     0.94             001 001
  ...............................................................................................................................................................................
     13    1  0   1.013     0.0     0.0     0.0         0.0     0.0     0.0
  BUS 13           -9.3     0.0     0.0     0.0         0.0     0.0     0.0                                          
                         9999.0  9999.0  9999.0        0.0%                    10 BUS 10        1  -332.8   -38.7   330.8                      0.44    -2.81                    
                         9999.0  9999.0  9999.0        0.0%                    12 BUS 12        1     2.9    46.9    46.4                      0.03     0.94                    
                         9999.0  9999.0  9999.0        0.0%                    14 BUS 14        1   329.9    -8.2   325.8                      0.95    -6.92                    
  ...............................................................................................................................................................................
     14    1  0   1.010     0.0     0.0     0.0         0.0     0.0     0.0
  BUS 14          -11.2     0.0     0.0     0.0         0.0     0.0     0.0                                          
                         9999.0  9999.0  9999.0        0.0%                     4 BUS 04        1   263.1    42.8   263.8                      0.56    -4.94                    
                         9999.0  9999.0  9999.0        0.0%                    13 BUS 13        1  -329.0     1.3   325.6                      0.95    -6.92                    
                         9999.0  9999.0  9999.0        0.0%                    15 BUS 15        1    65.9   -44.1    78.4                      0.09   -36.47                    
  ...............................................................................................................................................................................
CEPEL - CENTRO DE PESQUISAS DE ENERGIA ELETRICA - PROGRAMA DE ANALISE DE REDES - V13.00.00                                 PAG.   8

 IEEE 39 BUS SYSTEM - ZIP LOAD MODEL (40Z, 40I, 20P)                             
 RELATORIO COMPLETO DO SISTEMA * AREA   1 *                                     

 X--------------------- D A D O S  -  B A R R A ---------------------------X------------- F L U X O S  -  C I R C U I T O S --------------X-----------------X-----------X-------X
  DA BARRA       TENSAO GERACAO INJ EQV  CARGA    ELO CC     SHUNT   MOTOR                                                                                                       
  NUM.  KV TIPO   MOD/     MW/     MW/     MW/      MW/      Mvar/     MW/                                                                    P E R D A S    T E N S A O         
       NOME       ANG     Mvar    Mvar    Mvar     Mvar      EQUIV    Mvar  PARA BARRA             F   L   U   X   O   S                    ATIVA   REATIVA  CIR. ABERTO  TRAFO  
                        MVA_NOM MVA_EMR MVA_EQP   FLUXO %   SHUNT L         NUM.      NOME     NC    MW     Mvar  MVA/V_d   TAP  DEFAS TIE    MW      Mvar    MOD   ANG  UOp UMx 
 X-------------X-------X-------X-------X-------X-----------X-------X-------X-----X------------X--X-------X-------X-------X------X-----X---X--------X--------X-----X-----X---X---X

     15    1  0   1.015     0.0     0.0   325.7         0.0     0.0     0.0
  BUS 15          -12.0     0.0     0.0   155.7         0.0     0.0     0.0                                          
                         9999.0  9999.0  9999.0        0.0%                    14 BUS 14        1   -65.8     7.6    65.3                      0.09   -36.47                    
                         9999.0  9999.0  9999.0        0.0%                    16 BUS 16        1  -259.9  -163.3   302.5                      0.80    -9.56                    
  ...............................................................................................................................................................................
     16    1  0   1.032     0.0     0.0   341.7         0.0     3.2     0.0
  BUS 16          -10.7     0.0     0.0    33.2         0.0     0.0     0.0                                          
                         9999.0  9999.0  9999.0        0.0%                    15 BUS 15        1   260.7   153.8   293.4                      0.80    -9.56                    
                         9999.0  9999.0  9999.0        0.0%                    17 BUS 17        1   241.3   -47.0   238.3                      0.39    -9.31                    
                         9999.0  9999.0  9999.0        0.0%                    19 BUS 19        1  -509.3   -46.4   495.7                      3.91    14.75                    
                         9999.0  9999.0  9999.0        0.0%                    21 BUS 21        1  -312.8    13.3   303.4                      0.74   -14.62                    
                         9999.0  9999.0  9999.0        0.0%                    24 BUS 24        1   -21.6  -103.7   102.7                      0.03    -6.70                    
  ...............................................................................................................................................................................
     17    1  0   1.034     0.0     0.0     0.0         0.0     0.0     0.0
  BUS 17          -11.9     0.0     0.0     0.0         0.0     0.0     0.0                                          
                         9999.0  9999.0  9999.0        0.0%                    16 BUS 16        1  -240.9    37.7   235.9                      0.39    -9.31                    
                         9999.0  9999.0  9999.0        0.0%                    18 BUS 18        1   188.5    11.7   182.7                      0.23   -11.31                    
                         9999.0  9999.0  9999.0        0.0%                    27 BUS 27        1    52.4   -49.4    69.7                      0.05   -33.91                    
  ...............................................................................................................................................................................
     18    1  0   1.031     0.0     0.0   164.0         0.0     0.0     0.0
  BUS 18          -12.7     0.0     0.0    31.1         0.0     0.0     0.0                                          
                         9999.0  9999.0  9999.0        0.0%                     3 BUS 03        1    24.3    -8.1    24.8                      0.01   -22.64                    
                         9999.0  9999.0  9999.0        0.0%                    17 BUS 17        1  -188.2   -23.0   183.9                      0.23   -11.31                    
  ...............................................................................................................................................................................
     19    1  0   1.050     0.0     0.0     0.0         0.0     0.0     0.0
  BUS 19           -5.5     0.0     0.0     0.0         0.0     0.0     0.0                                          
                         9999.0  9999.0  9999.0        0.0%                    16 BUS 16        1   513.2    61.2   492.3                      3.91    14.75                    
                         9999.0  9999.0  9999.0        0.0%                    20 BUS 20        1   115.9   -10.6   110.9 1.060F               0.10     1.91             001 001
                         9999.0  9999.0  9999.0        0.0%                    33 GEN 33        1  -629.1   -50.6   601.2 1.070F               2.90    58.77             001 001
  ...............................................................................................................................................................................
     20    1  0   0.991     0.0     0.0   621.3         0.0     0.0     0.0
  BUS 20           -6.4     0.0     0.0   101.9         0.0     0.0     0.0                                          
                         9999.0  9999.0  9999.0        0.0%                    19 BUS 19        1  -115.8    12.5   117.5                      0.10     1.91                    
                         9999.0  9999.0  9999.0        0.0%                    34 GEN 34        1  -505.5  -114.4   522.9 1.009F               2.51    50.11             001 001
  ...............................................................................................................................................................................
     21    1  0   1.031     0.0     0.0   284.5         0.0     0.0     0.0
  BUS 21           -8.4     0.0     0.0   119.4         0.0     0.0     0.0                                          
                         9999.0  9999.0  9999.0        0.0%                    16 BUS 16        1   313.5   -27.9   305.2                      0.74   -14.62                    
                         9999.0  9999.0  9999.0        0.0%                    22 BUS 22        1  -598.0   -91.5   586.5                      2.73    20.07                    
  ...............................................................................................................................................................................
CEPEL - CENTRO DE PESQUISAS DE ENERGIA ELETRICA - PROGRAMA DE ANALISE DE REDES - V13.00.00                                 PAG.   9

 IEEE 39 BUS SYSTEM - ZIP LOAD MODEL (40Z, 40I, 20P)                             
 RELATORIO COMPLETO DO SISTEMA * AREA   1 *                                     

 X--------------------- D A D O S  -  B A R R A ---------------------------X------------- F L U X O S  -  C I R C U I T O S --------------X-----------------X-----------X-------X
  DA BARRA       TENSAO GERACAO INJ EQV  CARGA    ELO CC     SHUNT   MOTOR                                                                                                       
  NUM.  KV TIPO   MOD/     MW/     MW/     MW/      MW/      Mvar/     MW/                                                                    P E R D A S    T E N S A O         
       NOME       ANG     Mvar    Mvar    Mvar     Mvar      EQUIV    Mvar  PARA BARRA             F   L   U   X   O   S                    ATIVA   REATIVA  CIR. ABERTO  TRAFO  
                        MVA_NOM MVA_EMR MVA_EQP   FLUXO %   SHUNT L         NUM.      NOME     NC    MW     Mvar  MVA/V_d   TAP  DEFAS TIE    MW      Mvar    MOD   ANG  UOp UMx 
 X-------------X-------X-------X-------X-------X-----------X-------X-------X-----X------------X--X-------X-------X-------X------X-----X---X--------X--------X-----X-----X---X---X

     22    1  0   1.050     0.0     0.0     0.0         0.0     0.0     0.0
  BUS 22           -4.0     0.0     0.0     0.0         0.0     0.0     0.0                                          
                         9999.0  9999.0  9999.0        0.0%                    21 BUS 21        1   600.7   111.5   582.0                      2.73    20.07                    
                         9999.0  9999.0  9999.0        0.0%                    23 BUS 23        1    49.3    38.3    59.4                      0.03   -19.84                    
                         9999.0  9999.0  9999.0        0.0%                    35 GEN 35        1  -650.0  -149.8   635.4 1.025F               0.00    60.66             001 001
  ...............................................................................................................................................................................
     23    1  0   1.045     0.0     0.0   261.1         0.0     6.6     0.0
  BUS 23           -4.3     0.0     0.0    88.6         0.0     0.0     0.0                                          
                         9999.0  9999.0  9999.0        0.0%                    22 BUS 22        1   -49.3   -58.1    72.9                      0.03   -19.84                    
                         9999.0  9999.0  9999.0        0.0%                    24 BUS 24        1   346.7     0.3   331.8                      2.43    -0.48                    
                         9999.0  9999.0  9999.0        0.0%                    36 GEN 36        1  -558.6   -24.3   535.0 1.000F               1.43    77.85             001 001
  ...............................................................................................................................................................................
     24    1  0   1.038     0.0     0.0   322.7         0.0     0.0     0.0
  BUS 24          -10.7     0.0     0.0   -96.2         0.0     0.0     0.0                                          
                         9999.0  9999.0  9999.0        0.0%                    16 BUS 16        1    21.6    97.0    95.8                      0.03    -6.70                    
                         9999.0  9999.0  9999.0        0.0%                    23 BUS 23        1  -344.3    -0.8   331.9                      2.43    -0.48                    
  ...............................................................................................................................................................................
     25    1  0   1.057     0.0     0.0   239.6         0.0     2.2     0.0
  BUS 25           -9.1     0.0     0.0    50.3         0.0     0.0     0.0                                          
                         9999.0  9999.0  9999.0        0.0%                     2 BUS 02        1   208.2   -84.9   212.7                      3.08   -12.41                    
                         9999.0  9999.0  9999.0        0.0%                    26 BUS 26        1    90.6   -23.4    88.5                      0.24   -54.72                    
                         9999.0  9999.0  9999.0        0.0%                    37 GEN 37        1  -538.3    60.3   512.5 1.025F               1.66    64.02             001 001
  ...............................................................................................................................................................................
     26    1  0   1.053     0.0     0.0   148.0         0.0     0.0     0.0
  BUS 26          -10.6     0.0     0.0    18.1         0.0     0.0     0.0                                          
                         9999.0  9999.0  9999.0        0.0%                    25 BUS 25        1   -90.3   -31.3    90.8                      0.24   -54.72                    
                         9999.0  9999.0  9999.0        0.0%                    27 BUS 27        1   242.6    71.2   240.1                      0.83   -17.46                    
                         9999.0  9999.0  9999.0        0.0%                    28 BUS 28        1  -123.9   -27.7   120.6                      0.60   -79.81                    
                         9999.0  9999.0  9999.0        0.0%                    29 BUS 29        1  -176.4   -30.3   169.9                      1.64   -96.06                    
  ...............................................................................................................................................................................
     27    1  0   1.039     0.0     0.0   294.2         0.0     5.4     0.0
  BUS 27          -12.4     0.0     0.0    78.5         0.0     0.0     0.0                                          
                         9999.0  9999.0  9999.0        0.0%                    17 BUS 17        1   -52.4    15.5    52.6                      0.05   -33.91                    
                         9999.0  9999.0  9999.0        0.0%                    26 BUS 26        1  -241.8   -88.6   247.9                      0.83   -17.46                    
  ...............................................................................................................................................................................
     28    1  0   1.053     0.0     0.0   219.2         0.0     6.6     0.0
  BUS 28           -7.5     0.0     0.0    28.7         0.0     0.0     0.0                                          
                         9999.0  9999.0  9999.0        0.0%                    26 BUS 26        1   124.5   -52.1   128.2                      0.60   -79.81                    
                         9999.0  9999.0  9999.0        0.0%                    29 BUS 29        1  -343.7    30.1   327.8                      1.52   -11.21                    
  ...............................................................................................................................................................................
CEPEL - CENTRO DE PESQUISAS DE ENERGIA ELETRICA - PROGRAMA DE ANALISE DE REDES - V13.00.00                                 PAG.  10

 IEEE 39 BUS SYSTEM - ZIP LOAD MODEL (40Z, 40I, 20P)                             
 RELATORIO COMPLETO DO SISTEMA * AREA   1 *                                     

 X--------------------- D A D O S  -  B A R R A ---------------------------X------------- F L U X O S  -  C I R C U I T O S --------------X-----------------X-----------X-------X
  DA BARRA       TENSAO GERACAO INJ EQV  CARGA    ELO CC     SHUNT   MOTOR                                                                                                       
  NUM.  KV TIPO   MOD/     MW/     MW/     MW/      MW/      Mvar/     MW/                                                                    P E R D A S    T E N S A O         
       NOME       ANG     Mvar    Mvar    Mvar     Mvar      EQUIV    Mvar  PARA BARRA             F   L   U   X   O   S                    ATIVA   REATIVA  CIR. ABERTO  TRAFO  
                        MVA_NOM MVA_EMR MVA_EQP   FLUXO %   SHUNT L         NUM.      NOME     NC    MW     Mvar  MVA/V_d   TAP  DEFAS TIE    MW      Mvar    MOD   ANG  UOp UMx 
 X-------------X-------X-------X-------X-------X-----------X-------X-------X-----X------------X--X-------X-------X-------X------X-----X---X--------X--------X-----X-----X---X---X

     29    1  0   1.052     0.0     0.0   301.5         0.0    10.0     0.0
  BUS 29           -4.8     0.0     0.0    27.7         0.0     0.0     0.0                                          
                         9999.0  9999.0  9999.0        0.0%                    26 BUS 26        1   178.0   -65.8   180.4                      1.64   -96.06                    
                         9999.0  9999.0  9999.0        0.0%                    28 BUS 28        1   345.2   -41.3   330.5                      1.52   -11.21                    
                         9999.0  9999.0  9999.0        0.0%                    38 GEN 38        1  -824.8    89.4   788.6 1.025F               5.23   101.92             001 001
  ...............................................................................................................................................................................
     30    1  1   1.048   250.0     0.0     0.0         0.0     0.0     0.0
  GEN 30           -7.9   143.6     0.0     0.0         0.0     0.0     0.0                                          
                         9999.0  9999.0  9999.0        0.0%                     2 BUS 02        1   250.0   143.6   275.1                      0.00    13.70                    
  ...............................................................................................................................................................................
     31    1  2   0.982   692.3     0.0     9.0         0.0     0.0     0.0
  GEN 31           -0.0   233.8     0.0     4.5         0.0     0.0     0.0                                          
                         9999.0  9999.0  9999.0        0.0%                     6 BUS 06        1   683.3   229.3   733.9                      0.00   134.66                    
  ...............................................................................................................................................................................
     32    1  1   0.983   650.0     0.0     0.0         0.0     0.0     0.0
  GEN 32           -0.5   210.7     0.0     0.0         0.0     0.0     0.0                                          
                         9999.0  9999.0  9999.0        0.0%                    10 BUS 10        1   650.0   210.7   695.1                      0.00    96.64                    
  ...............................................................................................................................................................................
     33    1  1   0.997   632.0     0.0     0.0         0.0     0.0     0.0
  GEN 33           -0.3   109.4     0.0     0.0         0.0     0.0     0.0                                          
                         9999.0  9999.0  9999.0        0.0%                    19 BUS 19        1   632.0   109.4   643.3                      2.90    58.77                    
  ...............................................................................................................................................................................
     34    1  1   1.012   508.0     0.0     0.0         0.0     0.0     0.0
  GEN 34           -1.2   164.5     0.0     0.0         0.0     0.0     0.0                                          
                         9999.0  9999.0  9999.0        0.0%                    20 BUS 20        1   508.0   164.5   527.6                      2.51    50.11                    
  ...............................................................................................................................................................................
     35    1  1   1.049   650.0     0.0     0.0         0.0     0.0     0.0
  GEN 35            0.9   210.5     0.0     0.0         0.0     0.0     0.0                                          
                         9999.0  9999.0  9999.0        0.0%                    22 BUS 22        1   650.0   210.5   651.3                      0.00    60.66                    
  ...............................................................................................................................................................................
     36    1  1   1.064   560.0     0.0     0.0         0.0     0.0     0.0
  GEN 36            3.6   102.1     0.0     0.0         0.0     0.0     0.0                                          
                         9999.0  9999.0  9999.0        0.0%                    23 BUS 23        1   560.0   102.1   535.0                      1.43    77.85                    
  ...............................................................................................................................................................................
     37    1  1   1.028   540.0     0.0     0.0         0.0     0.0     0.0
  GEN 37           -2.3     3.7     0.0     0.0         0.0     0.0     0.0                                          
                         9999.0  9999.0  9999.0        0.0%                    25 BUS 25        1   540.0     3.7   525.3                      1.66    64.02                    
  ...............................................................................................................................................................................
CEPEL - CENTRO DE PESQUISAS DE ENERGIA ELETRICA - PROGRAMA DE ANALISE DE REDES - V13.00.00                                 PAG.  11

 IEEE 39 BUS SYSTEM - ZIP LOAD MODEL (40Z, 40I, 20P)                             
 RELATORIO COMPLETO DO SISTEMA * AREA   1 *                                     

 X--------------------- D A D O S  -  B A R R A ---------------------------X------------- F L U X O S  -  C I R C U I T O S --------------X-----------------X-----------X-------X
  DA BARRA       TENSAO GERACAO INJ EQV  CARGA    ELO CC     SHUNT   MOTOR                                                                                                       
  NUM.  KV TIPO   MOD/     MW/     MW/     MW/      MW/      Mvar/     MW/                                                                    P E R D A S    T E N S A O         
       NOME       ANG     Mvar    Mvar    Mvar     Mvar      EQUIV    Mvar  PARA BARRA             F   L   U   X   O   S                    ATIVA   REATIVA  CIR. ABERTO  TRAFO  
                        MVA_NOM MVA_EMR MVA_EQP   FLUXO %   SHUNT L         NUM.      NOME     NC    MW     Mvar  MVA/V_d   TAP  DEFAS TIE    MW      Mvar    MOD   ANG  UOp UMx 
 X-------------X-------X-------X-------X-------X-----------X-------X-------X-----X------------X--X-------X-------X-------X------X-----X---X--------X--------X-----X-----X---X---X

     38    1  1   1.027   830.0     0.0     0.0         0.0     0.0     0.0
  GEN 38            2.3    12.6     0.0     0.0         0.0     0.0     0.0                                          
                         9999.0  9999.0  9999.0        0.0%                    29 BUS 29        1   830.0    12.6   808.3                      5.23   101.92                    
  ...............................................................................................................................................................................
     39    1  1   1.030  1000.0     0.0  1144.1         0.0     0.0     0.0
  GEN 39          -14.5   101.0     0.0   259.1         0.0     0.0     0.0                                          
                         9999.0  9999.0  9999.0        0.0%                     1 BUS 01        1  -120.9  -106.6   156.5                      0.18   -76.45                    
                         9999.0  9999.0  9999.0        0.0%                     9 BUS 09        1   -23.2   -51.5    54.8                      0.01  -126.81                    



 TOTAIS DA AREA   1


 X--------X--------X--------X--------X--------X--------X--------X--------X
   GERACAO  INJ EQV   CARGA   ELO CC    SHUNT   EXPORT   IMPORT   PERDAS  
     MW/      MW/      MW/      MW/     Mvar/     MW/      MW/      MW/   
    Mvar     Mvar     Mvar     Mvar     EQUIV    Mvar     Mvar     Mvar   
 X--------X--------X--------X--------X--------X--------X--------X--------X

    6312.3      0.0   6270.2      0.0     34.0      0.0      0.0     42.1
    1291.8      0.0   1433.9      0.0      0.0      0.0      0.0   -108.0


 MONITORACAO DE TENSAO

Não foram encontradas violações de tensao entre as barras monitoradas.


 MONITORACAO DE GERACAO REATIVA

Não foram encontradas violações de geracao entre as barras monitoradas.


 MONITORACAO DE FLUXOS CORRIGIDOS PELA TENSAO - MFCT

 Não foram encontradas violações de fluxo entre os circuitos monitorados
CEPEL - CENTRO DE PESQUISAS DE ENERGIA ELETRICA - PROGRAMA DE ANALISE DE REDES - V13.00.00                                 PAG.   2

 IEEE 39 BUS SYSTEM - ZIP LOAD MODEL (40Z, 40I, 20P) - CARGA 110%                
 DADOS DE BARRA CA

 X------------------------X------X---------------X-----X-----------------X-----------X-----X----X-X---------------------------------------X
            BARRA          BARRA    TENSAO  GRUPO GERMW     GER Mvar         CARGA    SHUNT V CF M     A  G  R  E  G  A  D  O  R  E  S
  NUM.      NOME     T ARE CONTR.  MOD  ANG B  L  ESPEC  MIN  ESPEC  MAX    MW   Mvar  Mvar  MOD P AG1 AG2 AG3 AG4 AG5 AG6 AG7 AG8 AG9 A10 
 X-----X------------X-X---X------X----X----X--X--X-----X-----X-----X-----X-----X-----X-----X----X-X---X---X---X---X---X---X---X---X---X---X

      1 BUS 01           1        1000    0  B  0                                           1100 0                                         ADIC 
 *** AVISO INPBUS-0925 ***
 Numero da area em branco. A barra sera adicionada a area numero 001.

      2 BUS 02           1        1000    0  B  0                                           1100 0                                         ADIC 
 *** AVISO INPBUS-0925 ***
 Numero da area em branco. A barra sera adicionada a area numero 001.

      5 BUS 05           1        1000    0  B  0                                           1100 0                                         ADIC 
 *** AVISO INPBUS-0925 ***
 Numero da area em branco. A barra sera adicionada a area numero 001.

      6 BUS 06           1        1000    0  B  0                                           1100 0                                         ADIC 
 *** AVISO INPBUS-0925 ***
 Numero da area em branco. A barra sera adicionada a area numero 001.

      9 BUS 09           1        1000    0  B  0                                           1100 0                                         ADIC 
 *** AVISO INPBUS-0925 ***
 Numero da area em branco. A barra sera adicionada a area numero 001.

     10 BUS 10           1        1000    0  B  0                                           1100 0                                         ADIC 
 *** AVISO INPBUS-0925 ***
 Numero da area em branco. A barra sera adicionada a area numero 001.

     11 BUS 11           1        1000    0  B  0                                           1100 0                                         ADIC 
 *** AVISO INPBUS-0925 ***
 Numero da area em branco. A barra sera adicionada a area numero 001.

     13 BUS 13           1        1000    0  B  0                                           1100 0                                         ADIC 
 *** AVISO INPBUS-0925 ***
 Numero da area em branco. A barra sera adicionada a area numero 001.

     14 BUS 14           1        1000    0  B  0                                           1100 0                                         ADIC 
 *** AVISO INPBUS-0925 ***
 Numero da area em branco. A barra sera adicionada a area numero 001.

     17 BUS 17           1        1000    0  B  0                                           1100 0                                         ADIC 
 *** AVISO INPBUS-0925 ***
 Numero da area em branco. A barra sera adicionada a area numero 001.

     19 BUS 19           1        1000    0  B  0                                           1100 0                                         ADIC 
 *** AVISO INPBUS-0925 ***
 Numero da area em branco. A barra sera adicionada a area numero 001.

     22 BUS 22           1        1000    0  B  0                                           1100 0                                         ADIC 
 *** AVISO INPBUS-0925 ***
 Numero da area em branco. A barra sera adicionada a area numero 001.

CEPEL - CENTRO DE PESQUISAS DE ENERGIA ELETRICA - PROGRAMA DE ANALISE DE REDES - V13.00.00                                 PAG.   3

 IEEE 39 BUS SYSTEM - ZIP LOAD MODEL (40Z, 40I, 20P) - CARGA 110%                
 DADOS DE GERADORES INDIVIDUALIZADOS

 X------------------X-------X-----X-----------X------X-----X-----X-----X------X-----X-----X-----X-------------X---X-------X----X-----X--X----X
   BARRA GERADORA    UNIDADE PGER    QGERADO   TRANSF         DADOS DE MAQUINA             Fator Identificacao Un. Agrega- TIPO BARRA    MODO
   NUM.     NOME     MIN MAX (MW)   ATUAL MAX   xtrf  xd(%)   xl   f.p.   PMEC  PMIN  EST. PART    Curva por   p/   dores   DA   DE       DE
  GRUPO ESTADO\VRUOp     OPE ESPEC        MIN    (%)  xq(%)  (%)   SNOM   MAX.        R(%) PARTR    Pontos     TRF SIN T3E GER.  ALTA Nc OPER
 X-----X------------X---X---X-----X-----------X------X-----X-----X-----X------X-----X-----X-----X-------------X---X---X---X----X-----X--X----X

     39 GEN 39         1   1         0.0  9999          0.0   0.0   1.0 9999.    0.     0.    0.                 1                       GERA
      1 LIG.    CALC       1             -9999          0.0              9999.                0.                                              ADIC 
 *** AVISO INPGEI-0361 ***
 Campos (NBA) e Nc em branco. Transformador do GEI nao sera atualizado automaticamente com o numero de unidades.

